#
#These predictions were generated by FAST (v7.01.00a-bjj, 16-Feb-2012) on 22-Sep-2015 at 15:13:04.
#The aerodynamic calculations were made by AeroDyn (v13.00.01a-bjj, 16-Feb-2012).
#
# NREL 5.0 MW Baseline Wind Turbine for Use in Offshore Analysis.
#
#Time	PtfmSurge	PtfmSway	PtfmHeave	PtfmRoll	PtfmPitch	PtfmYaw	PtfmTVxi	PtfmTVyi	PtfmTVzi	PtfmRVxi	PtfmRVyi	PtfmRVzi	PtfmTAxi	PtfmTAyi	PtfmTAzi	PtfmRAxi	PtfmRAyi	PtfmRAzi
#(s)	(m)	(m)	(m)	(deg)	(deg)	(deg)	(m/s)	(m/s)	(m/s)	(deg/s)	(deg/s)	(deg/s)	(m/s^2)	(m/s^2)	(m/s^2)	(deg/s^2)	(deg/s^2)	(deg/s^2)
   0.005	 2.200E+01	 0.000E+00	 0.000E+00	 0.000E+00	 0.000E+00	 0.000E+00	-9.025E-04	 0.000E+00	 0.000E+00	 0.000E+00	 0.000E+00	 0.000E+00	-1.805E-01	 0.000E+00	 0.000E+00	 0.000E+00	 0.000E+00	 0.000E+00
   0.010	 2.200E+01	 0.000E+00	 0.000E+00	 0.000E+00	 0.000E+00	 0.000E+00	-1.805E-03	 0.000E+00	 0.000E+00	 0.000E+00	 0.000E+00	 0.000E+00	-1.805E-01	 0.000E+00	 0.000E+00	 0.000E+00	 0.000E+00	 0.000E+00
   0.015	 2.200E+01	 0.000E+00	 0.000E+00	 0.000E+00	 0.000E+00	 0.000E+00	-2.708E-03	 0.000E+00	 0.000E+00	 0.000E+00	 0.000E+00	 0.000E+00	-1.805E-01	 0.000E+00	 0.000E+00	 0.000E+00	 0.000E+00	 0.000E+00
   0.020	 2.200E+01	 0.000E+00	 0.000E+00	 0.000E+00	 0.000E+00	 0.000E+00	-3.610E-03	 0.000E+00	 0.000E+00	 0.000E+00	 0.000E+00	 0.000E+00	-1.805E-01	 0.000E+00	 0.000E+00	 0.000E+00	 0.000E+00	 0.000E+00
   0.025	 2.200E+01	 0.000E+00	 0.000E+00	 0.000E+00	 0.000E+00	 0.000E+00	-4.513E-03	 0.000E+00	 0.000E+00	 0.000E+00	 0.000E+00	 0.000E+00	-1.805E-01	 0.000E+00	 0.000E+00	 0.000E+00	 0.000E+00	 0.000E+00
   0.030	 2.200E+01	 0.000E+00	 0.000E+00	 0.000E+00	 0.000E+00	 0.000E+00	-5.415E-03	 0.000E+00	 0.000E+00	 0.000E+00	 0.000E+00	 0.000E+00	-1.805E-01	 0.000E+00	 0.000E+00	 0.000E+00	 0.000E+00	 0.000E+00
   0.035	 2.200E+01	 0.000E+00	 0.000E+00	 0.000E+00	 0.000E+00	 0.000E+00	-6.317E-03	 0.000E+00	 0.000E+00	 0.000E+00	 0.000E+00	 0.000E+00	-1.805E-01	 0.000E+00	 0.000E+00	 0.000E+00	 0.000E+00	 0.000E+00
   0.040	 2.200E+01	 0.000E+00	 0.000E+00	 0.000E+00	 0.000E+00	 0.000E+00	-7.220E-03	 0.000E+00	 0.000E+00	 0.000E+00	 0.000E+00	 0.000E+00	-1.805E-01	 0.000E+00	 0.000E+00	 0.000E+00	 0.000E+00	 0.000E+00
   0.045	 2.200E+01	 0.000E+00	 0.000E+00	 0.000E+00	 0.000E+00	 0.000E+00	-8.122E-03	 0.000E+00	 0.000E+00	 0.000E+00	 0.000E+00	 0.000E+00	-1.805E-01	 0.000E+00	 0.000E+00	 0.000E+00	 0.000E+00	 0.000E+00
   0.050	 2.200E+01	 0.000E+00	 0.000E+00	 0.000E+00	 0.000E+00	 0.000E+00	-9.024E-03	 0.000E+00	 0.000E+00	 0.000E+00	 0.000E+00	 0.000E+00	-1.805E-01	 0.000E+00	 0.000E+00	 0.000E+00	 0.000E+00	 0.000E+00
   0.055	 2.200E+01	 0.000E+00	 0.000E+00	 0.000E+00	 0.000E+00	 0.000E+00	-9.927E-03	 0.000E+00	 0.000E+00	 0.000E+00	 0.000E+00	 0.000E+00	-1.805E-01	 0.000E+00	 0.000E+00	 0.000E+00	 0.000E+00	 0.000E+00
   0.060	 2.200E+01	 0.000E+00	 0.000E+00	 0.000E+00	 0.000E+00	 0.000E+00	-1.083E-02	 0.000E+00	 0.000E+00	 0.000E+00	 0.000E+00	 0.000E+00	-1.805E-01	 0.000E+00	 0.000E+00	 0.000E+00	 0.000E+00	 0.000E+00
   0.065	 2.200E+01	 0.000E+00	 0.000E+00	 0.000E+00	 0.000E+00	 0.000E+00	-1.173E-02	 0.000E+00	 0.000E+00	 0.000E+00	 0.000E+00	 0.000E+00	-1.805E-01	 0.000E+00	 0.000E+00	 0.000E+00	 0.000E+00	 0.000E+00
   0.070	 2.200E+01	 0.000E+00	 0.000E+00	 0.000E+00	 0.000E+00	 0.000E+00	-1.263E-02	 0.000E+00	 0.000E+00	 0.000E+00	 0.000E+00	 0.000E+00	-1.805E-01	 0.000E+00	 0.000E+00	 0.000E+00	 0.000E+00	 0.000E+00
   0.075	 2.200E+01	 0.000E+00	 0.000E+00	 0.000E+00	 0.000E+00	 0.000E+00	-1.354E-02	 0.000E+00	 0.000E+00	 0.000E+00	 0.000E+00	 0.000E+00	-1.805E-01	 0.000E+00	 0.000E+00	 0.000E+00	 0.000E+00	 0.000E+00
   0.080	 2.200E+01	 0.000E+00	 0.000E+00	 0.000E+00	 0.000E+00	 0.000E+00	-1.444E-02	 0.000E+00	 0.000E+00	 0.000E+00	 0.000E+00	 0.000E+00	-1.803E-01	 0.000E+00	 0.000E+00	 0.000E+00	 0.000E+00	 0.000E+00
   0.085	 2.200E+01	 0.000E+00	 0.000E+00	 0.000E+00	 0.000E+00	 0.000E+00	-1.534E-02	 0.000E+00	 0.000E+00	 0.000E+00	 0.000E+00	 0.000E+00	-1.803E-01	 0.000E+00	 0.000E+00	 0.000E+00	 0.000E+00	 0.000E+00
   0.090	 2.200E+01	 0.000E+00	 0.000E+00	 0.000E+00	 0.000E+00	 0.000E+00	-1.624E-02	 0.000E+00	 0.000E+00	 0.000E+00	 0.000E+00	 0.000E+00	-1.803E-01	 0.000E+00	 0.000E+00	 0.000E+00	 0.000E+00	 0.000E+00
   0.095	 2.200E+01	 0.000E+00	 0.000E+00	 0.000E+00	 0.000E+00	 0.000E+00	-1.714E-02	 0.000E+00	 0.000E+00	 0.000E+00	 0.000E+00	 0.000E+00	-1.803E-01	 0.000E+00	 0.000E+00	 0.000E+00	 0.000E+00	 0.000E+00
   0.100	 2.200E+01	 0.000E+00	 0.000E+00	 0.000E+00	 0.000E+00	 0.000E+00	-1.804E-02	 0.000E+00	 0.000E+00	 0.000E+00	 0.000E+00	 0.000E+00	-1.803E-01	 0.000E+00	 0.000E+00	 0.000E+00	 0.000E+00	 0.000E+00
   0.105	 2.200E+01	 0.000E+00	 0.000E+00	 0.000E+00	 0.000E+00	 0.000E+00	-1.895E-02	 0.000E+00	 0.000E+00	 0.000E+00	 0.000E+00	 0.000E+00	-1.803E-01	 0.000E+00	 0.000E+00	 0.000E+00	 0.000E+00	 0.000E+00
   0.110	 2.200E+01	 0.000E+00	 0.000E+00	 0.000E+00	 0.000E+00	 0.000E+00	-1.985E-02	 0.000E+00	 0.000E+00	 0.000E+00	 0.000E+00	 0.000E+00	-1.803E-01	 0.000E+00	 0.000E+00	 0.000E+00	 0.000E+00	 0.000E+00
   0.115	 2.200E+01	 0.000E+00	 0.000E+00	 0.000E+00	 0.000E+00	 0.000E+00	-2.075E-02	 0.000E+00	 0.000E+00	 0.000E+00	 0.000E+00	 0.000E+00	-1.803E-01	 0.000E+00	 0.000E+00	 0.000E+00	 0.000E+00	 0.000E+00
   0.120	 2.200E+01	 0.000E+00	 0.000E+00	 0.000E+00	 0.000E+00	 0.000E+00	-2.165E-02	 0.000E+00	 0.000E+00	 0.000E+00	 0.000E+00	 0.000E+00	-1.803E-01	 0.000E+00	 0.000E+00	 0.000E+00	 0.000E+00	 0.000E+00
   0.125	 2.200E+01	 0.000E+00	 0.000E+00	 0.000E+00	 0.000E+00	 0.000E+00	-2.255E-02	 0.000E+00	 0.000E+00	 0.000E+00	 0.000E+00	 0.000E+00	-1.803E-01	 0.000E+00	 0.000E+00	 0.000E+00	 0.000E+00	 0.000E+00
   0.130	 2.200E+01	 0.000E+00	 0.000E+00	 0.000E+00	 0.000E+00	 0.000E+00	-2.345E-02	 0.000E+00	 0.000E+00	 0.000E+00	 0.000E+00	 0.000E+00	-1.802E-01	 0.000E+00	 0.000E+00	 0.000E+00	 0.000E+00	 0.000E+00
   0.135	 2.200E+01	 0.000E+00	 0.000E+00	 0.000E+00	 0.000E+00	 0.000E+00	-2.435E-02	 0.000E+00	 0.000E+00	 0.000E+00	 0.000E+00	 0.000E+00	-1.802E-01	 0.000E+00	 0.000E+00	 0.000E+00	 0.000E+00	 0.000E+00
   0.140	 2.200E+01	 0.000E+00	 0.000E+00	 0.000E+00	 0.000E+00	 0.000E+00	-2.525E-02	 0.000E+00	 0.000E+00	 0.000E+00	 0.000E+00	 0.000E+00	-1.802E-01	 0.000E+00	 0.000E+00	 0.000E+00	 0.000E+00	 0.000E+00
   0.145	 2.200E+01	 0.000E+00	 0.000E+00	 0.000E+00	 0.000E+00	 0.000E+00	-2.615E-02	 0.000E+00	 0.000E+00	 0.000E+00	 0.000E+00	 0.000E+00	-1.802E-01	 0.000E+00	 0.000E+00	 0.000E+00	 0.000E+00	 0.000E+00
   0.150	 2.200E+01	 0.000E+00	 0.000E+00	 0.000E+00	 0.000E+00	 0.000E+00	-2.706E-02	 0.000E+00	 0.000E+00	 0.000E+00	 0.000E+00	 0.000E+00	-1.802E-01	 0.000E+00	 0.000E+00	 0.000E+00	 0.000E+00	 0.000E+00
   0.155	 2.200E+01	 0.000E+00	 0.000E+00	 0.000E+00	 0.000E+00	 0.000E+00	-2.796E-02	 0.000E+00	 0.000E+00	 0.000E+00	 0.000E+00	 0.000E+00	-1.802E-01	 0.000E+00	 0.000E+00	 0.000E+00	 0.000E+00	 0.000E+00
   0.160	 2.200E+01	 0.000E+00	 0.000E+00	 0.000E+00	 0.000E+00	 0.000E+00	-2.886E-02	 0.000E+00	 0.000E+00	 0.000E+00	 0.000E+00	 0.000E+00	-1.802E-01	 0.000E+00	 0.000E+00	 0.000E+00	 0.000E+00	 0.000E+00
   0.165	 2.200E+01	 0.000E+00	 0.000E+00	 0.000E+00	 0.000E+00	 0.000E+00	-2.976E-02	 0.000E+00	 0.000E+00	 0.000E+00	 0.000E+00	 0.000E+00	-1.802E-01	 0.000E+00	 0.000E+00	 0.000E+00	 0.000E+00	 0.000E+00
   0.170	 2.200E+01	 0.000E+00	 0.000E+00	 0.000E+00	 0.000E+00	 0.000E+00	-3.066E-02	 0.000E+00	 0.000E+00	 0.000E+00	 0.000E+00	 0.000E+00	-1.802E-01	 0.000E+00	 0.000E+00	 0.000E+00	 0.000E+00	 0.000E+00
   0.175	 2.200E+01	 0.000E+00	 0.000E+00	 0.000E+00	 0.000E+00	 0.000E+00	-3.156E-02	 0.000E+00	 0.000E+00	 0.000E+00	 0.000E+00	 0.000E+00	-1.802E-01	 0.000E+00	 0.000E+00	 0.000E+00	 0.000E+00	 0.000E+00
   0.180	 2.200E+01	 0.000E+00	 0.000E+00	 0.000E+00	 0.000E+00	 0.000E+00	-3.246E-02	 0.000E+00	 0.000E+00	 0.000E+00	 0.000E+00	 0.000E+00	-1.800E-01	 0.000E+00	 0.000E+00	 0.000E+00	 0.000E+00	 0.000E+00
   0.185	 2.200E+01	 0.000E+00	 0.000E+00	 0.000E+00	 0.000E+00	 0.000E+00	-3.336E-02	 0.000E+00	 0.000E+00	 0.000E+00	 0.000E+00	 0.000E+00	-1.800E-01	 0.000E+00	 0.000E+00	 0.000E+00	 0.000E+00	 0.000E+00
   0.190	 2.200E+01	 0.000E+00	 0.000E+00	 0.000E+00	 0.000E+00	 0.000E+00	-3.426E-02	 0.000E+00	 0.000E+00	 0.000E+00	 0.000E+00	 0.000E+00	-1.800E-01	 0.000E+00	 0.000E+00	 0.000E+00	 0.000E+00	 0.000E+00
   0.195	 2.200E+01	 0.000E+00	 0.000E+00	 0.000E+00	 0.000E+00	 0.000E+00	-3.516E-02	 0.000E+00	 0.000E+00	 0.000E+00	 0.000E+00	 0.000E+00	-1.800E-01	 0.000E+00	 0.000E+00	 0.000E+00	 0.000E+00	 0.000E+00
   0.200	 2.200E+01	 0.000E+00	 0.000E+00	 0.000E+00	 0.000E+00	 0.000E+00	-3.606E-02	 0.000E+00	 0.000E+00	 0.000E+00	 0.000E+00	 0.000E+00	-1.800E-01	 0.000E+00	 0.000E+00	 0.000E+00	 0.000E+00	 0.000E+00
   0.205	 2.200E+01	 0.000E+00	 0.000E+00	 0.000E+00	 0.000E+00	 0.000E+00	-3.696E-02	 0.000E+00	 0.000E+00	 0.000E+00	 0.000E+00	 0.000E+00	-1.800E-01	 0.000E+00	 0.000E+00	 0.000E+00	 0.000E+00	 0.000E+00
   0.210	 2.200E+01	 0.000E+00	 0.000E+00	 0.000E+00	 0.000E+00	 0.000E+00	-3.786E-02	 0.000E+00	 0.000E+00	 0.000E+00	 0.000E+00	 0.000E+00	-1.800E-01	 0.000E+00	 0.000E+00	 0.000E+00	 0.000E+00	 0.000E+00
   0.215	 2.200E+01	 0.000E+00	 0.000E+00	 0.000E+00	 0.000E+00	 0.000E+00	-3.876E-02	 0.000E+00	 0.000E+00	 0.000E+00	 0.000E+00	 0.000E+00	-1.800E-01	 0.000E+00	 0.000E+00	 0.000E+00	 0.000E+00	 0.000E+00
   0.220	 2.200E+01	 0.000E+00	 0.000E+00	 0.000E+00	 0.000E+00	 0.000E+00	-3.966E-02	 0.000E+00	 0.000E+00	 0.000E+00	 0.000E+00	 0.000E+00	-1.800E-01	 0.000E+00	 0.000E+00	 0.000E+00	 0.000E+00	 0.000E+00
   0.225	 2.200E+01	 0.000E+00	 0.000E+00	 0.000E+00	 0.000E+00	 0.000E+00	-4.056E-02	 0.000E+00	 0.000E+00	 0.000E+00	 0.000E+00	 0.000E+00	-1.800E-01	 0.000E+00	 0.000E+00	 0.000E+00	 0.000E+00	 0.000E+00
   0.230	 2.200E+01	 0.000E+00	 0.000E+00	 0.000E+00	 0.000E+00	 0.000E+00	-4.146E-02	 0.000E+00	 0.000E+00	 0.000E+00	 0.000E+00	 0.000E+00	-1.799E-01	 0.000E+00	 0.000E+00	 0.000E+00	 0.000E+00	 0.000E+00
   0.235	 2.200E+01	 0.000E+00	 0.000E+00	 0.000E+00	 0.000E+00	 0.000E+00	-4.236E-02	 0.000E+00	 0.000E+00	 0.000E+00	 0.000E+00	 0.000E+00	-1.799E-01	 0.000E+00	 0.000E+00	 0.000E+00	 0.000E+00	 0.000E+00
   0.240	 2.199E+01	 0.000E+00	 0.000E+00	 0.000E+00	 0.000E+00	 0.000E+00	-4.326E-02	 0.000E+00	 0.000E+00	 0.000E+00	 0.000E+00	 0.000E+00	-1.799E-01	 0.000E+00	 0.000E+00	 0.000E+00	 0.000E+00	 0.000E+00
   0.245	 2.199E+01	 0.000E+00	 0.000E+00	 0.000E+00	 0.000E+00	 0.000E+00	-4.416E-02	 0.000E+00	 0.000E+00	 0.000E+00	 0.000E+00	 0.000E+00	-1.799E-01	 0.000E+00	 0.000E+00	 0.000E+00	 0.000E+00	 0.000E+00
   0.250	 2.199E+01	 0.000E+00	 0.000E+00	 0.000E+00	 0.000E+00	 0.000E+00	-4.506E-02	 0.000E+00	 0.000E+00	 0.000E+00	 0.000E+00	 0.000E+00	-1.799E-01	 0.000E+00	 0.000E+00	 0.000E+00	 0.000E+00	 0.000E+00
   0.255	 2.199E+01	 0.000E+00	 0.000E+00	 0.000E+00	 0.000E+00	 0.000E+00	-4.596E-02	 0.000E+00	 0.000E+00	 0.000E+00	 0.000E+00	 0.000E+00	-1.799E-01	 0.000E+00	 0.000E+00	 0.000E+00	 0.000E+00	 0.000E+00
   0.260	 2.199E+01	 0.000E+00	 0.000E+00	 0.000E+00	 0.000E+00	 0.000E+00	-4.686E-02	 0.000E+00	 0.000E+00	 0.000E+00	 0.000E+00	 0.000E+00	-1.799E-01	 0.000E+00	 0.000E+00	 0.000E+00	 0.000E+00	 0.000E+00
   0.265	 2.199E+01	 0.000E+00	 0.000E+00	 0.000E+00	 0.000E+00	 0.000E+00	-4.776E-02	 0.000E+00	 0.000E+00	 0.000E+00	 0.000E+00	 0.000E+00	-1.799E-01	 0.000E+00	 0.000E+00	 0.000E+00	 0.000E+00	 0.000E+00
   0.270	 2.199E+01	 0.000E+00	 0.000E+00	 0.000E+00	 0.000E+00	 0.000E+00	-4.865E-02	 0.000E+00	 0.000E+00	 0.000E+00	 0.000E+00	 0.000E+00	-1.799E-01	 0.000E+00	 0.000E+00	 0.000E+00	 0.000E+00	 0.000E+00
   0.275	 2.199E+01	 0.000E+00	 0.000E+00	 0.000E+00	 0.000E+00	 0.000E+00	-4.955E-02	 0.000E+00	 0.000E+00	 0.000E+00	 0.000E+00	 0.000E+00	-1.799E-01	 0.000E+00	 0.000E+00	 0.000E+00	 0.000E+00	 0.000E+00
   0.280	 2.199E+01	 0.000E+00	 0.000E+00	 0.000E+00	 0.000E+00	 0.000E+00	-5.045E-02	 0.000E+00	 0.000E+00	 0.000E+00	 0.000E+00	 0.000E+00	-1.797E-01	 0.000E+00	 0.000E+00	 0.000E+00	 0.000E+00	 0.000E+00
   0.285	 2.199E+01	 0.000E+00	 0.000E+00	 0.000E+00	 0.000E+00	 0.000E+00	-5.135E-02	 0.000E+00	 0.000E+00	 0.000E+00	 0.000E+00	 0.000E+00	-1.797E-01	 0.000E+00	 0.000E+00	 0.000E+00	 0.000E+00	 0.000E+00
   0.290	 2.199E+01	 0.000E+00	 0.000E+00	 0.000E+00	 0.000E+00	 0.000E+00	-5.225E-02	 0.000E+00	 0.000E+00	 0.000E+00	 0.000E+00	 0.000E+00	-1.797E-01	 0.000E+00	 0.000E+00	 0.000E+00	 0.000E+00	 0.000E+00
   0.295	 2.199E+01	 0.000E+00	 0.000E+00	 0.000E+00	 0.000E+00	 0.000E+00	-5.315E-02	 0.000E+00	 0.000E+00	 0.000E+00	 0.000E+00	 0.000E+00	-1.797E-01	 0.000E+00	 0.000E+00	 0.000E+00	 0.000E+00	 0.000E+00
   0.300	 2.199E+01	 0.000E+00	 0.000E+00	 0.000E+00	 0.000E+00	 0.000E+00	-5.405E-02	 0.000E+00	 0.000E+00	 0.000E+00	 0.000E+00	 0.000E+00	-1.797E-01	 0.000E+00	 0.000E+00	 0.000E+00	 0.000E+00	 0.000E+00
   0.305	 2.199E+01	 0.000E+00	 0.000E+00	 0.000E+00	 0.000E+00	 0.000E+00	-5.495E-02	 0.000E+00	 0.000E+00	 0.000E+00	 0.000E+00	 0.000E+00	-1.797E-01	 0.000E+00	 0.000E+00	 0.000E+00	 0.000E+00	 0.000E+00
   0.310	 2.199E+01	 0.000E+00	 0.000E+00	 0.000E+00	 0.000E+00	 0.000E+00	-5.584E-02	 0.000E+00	 0.000E+00	 0.000E+00	 0.000E+00	 0.000E+00	-1.797E-01	 0.000E+00	 0.000E+00	 0.000E+00	 0.000E+00	 0.000E+00
   0.315	 2.199E+01	 0.000E+00	 0.000E+00	 0.000E+00	 0.000E+00	 0.000E+00	-5.674E-02	 0.000E+00	 0.000E+00	 0.000E+00	 0.000E+00	 0.000E+00	-1.797E-01	 0.000E+00	 0.000E+00	 0.000E+00	 0.000E+00	 0.000E+00
   0.320	 2.199E+01	 0.000E+00	 0.000E+00	 0.000E+00	 0.000E+00	 0.000E+00	-5.764E-02	 0.000E+00	 0.000E+00	 0.000E+00	 0.000E+00	 0.000E+00	-1.797E-01	 0.000E+00	 0.000E+00	 0.000E+00	 0.000E+00	 0.000E+00
   0.325	 2.199E+01	 0.000E+00	 0.000E+00	 0.000E+00	 0.000E+00	 0.000E+00	-5.854E-02	 0.000E+00	 0.000E+00	 0.000E+00	 0.000E+00	 0.000E+00	-1.797E-01	 0.000E+00	 0.000E+00	 0.000E+00	 0.000E+00	 0.000E+00
   0.330	 2.199E+01	 0.000E+00	 0.000E+00	 0.000E+00	 0.000E+00	 0.000E+00	-5.944E-02	 0.000E+00	 0.000E+00	 0.000E+00	 0.000E+00	 0.000E+00	-1.796E-01	 0.000E+00	 0.000E+00	 0.000E+00	 0.000E+00	 0.000E+00
   0.335	 2.199E+01	 0.000E+00	 0.000E+00	 0.000E+00	 0.000E+00	 0.000E+00	-6.034E-02	 0.000E+00	 0.000E+00	 0.000E+00	 0.000E+00	 0.000E+00	-1.796E-01	 0.000E+00	 0.000E+00	 0.000E+00	 0.000E+00	 0.000E+00
   0.340	 2.199E+01	 0.000E+00	 0.000E+00	 0.000E+00	 0.000E+00	 0.000E+00	-6.123E-02	 0.000E+00	 0.000E+00	 0.000E+00	 0.000E+00	 0.000E+00	-1.796E-01	 0.000E+00	 0.000E+00	 0.000E+00	 0.000E+00	 0.000E+00
   0.345	 2.199E+01	 0.000E+00	 0.000E+00	 0.000E+00	 0.000E+00	 0.000E+00	-6.213E-02	 0.000E+00	 0.000E+00	 0.000E+00	 0.000E+00	 0.000E+00	-1.796E-01	 0.000E+00	 0.000E+00	 0.000E+00	 0.000E+00	 0.000E+00
   0.350	 2.199E+01	 0.000E+00	 0.000E+00	 0.000E+00	 0.000E+00	 0.000E+00	-6.303E-02	 0.000E+00	 0.000E+00	 0.000E+00	 0.000E+00	 0.000E+00	-1.796E-01	 0.000E+00	 0.000E+00	 0.000E+00	 0.000E+00	 0.000E+00
   0.355	 2.199E+01	 0.000E+00	 0.000E+00	 0.000E+00	 0.000E+00	 0.000E+00	-6.393E-02	 0.000E+00	 0.000E+00	 0.000E+00	 0.000E+00	 0.000E+00	-1.796E-01	 0.000E+00	 0.000E+00	 0.000E+00	 0.000E+00	 0.000E+00
   0.360	 2.199E+01	 0.000E+00	 0.000E+00	 0.000E+00	 0.000E+00	 0.000E+00	-6.483E-02	 0.000E+00	 0.000E+00	 0.000E+00	 0.000E+00	 0.000E+00	-1.796E-01	 0.000E+00	 0.000E+00	 0.000E+00	 0.000E+00	 0.000E+00
   0.365	 2.199E+01	 0.000E+00	 0.000E+00	 0.000E+00	 0.000E+00	 0.000E+00	-6.572E-02	 0.000E+00	 0.000E+00	 0.000E+00	 0.000E+00	 0.000E+00	-1.796E-01	 0.000E+00	 0.000E+00	 0.000E+00	 0.000E+00	 0.000E+00
   0.370	 2.199E+01	 0.000E+00	 0.000E+00	 0.000E+00	 0.000E+00	 0.000E+00	-6.662E-02	 0.000E+00	 0.000E+00	 0.000E+00	 0.000E+00	 0.000E+00	-1.796E-01	 0.000E+00	 0.000E+00	 0.000E+00	 0.000E+00	 0.000E+00
   0.375	 2.199E+01	 0.000E+00	 0.000E+00	 0.000E+00	 0.000E+00	 0.000E+00	-6.752E-02	 0.000E+00	 0.000E+00	 0.000E+00	 0.000E+00	 0.000E+00	-1.796E-01	 0.000E+00	 0.000E+00	 0.000E+00	 0.000E+00	 0.000E+00
   0.380	 2.199E+01	 0.000E+00	 0.000E+00	 0.000E+00	 0.000E+00	 0.000E+00	-6.842E-02	 0.000E+00	 0.000E+00	 0.000E+00	 0.000E+00	 0.000E+00	-1.794E-01	 0.000E+00	 0.000E+00	 0.000E+00	 0.000E+00	 0.000E+00
   0.385	 2.199E+01	 0.000E+00	 0.000E+00	 0.000E+00	 0.000E+00	 0.000E+00	-6.931E-02	 0.000E+00	 0.000E+00	 0.000E+00	 0.000E+00	 0.000E+00	-1.794E-01	 0.000E+00	 0.000E+00	 0.000E+00	 0.000E+00	 0.000E+00
   0.390	 2.199E+01	 0.000E+00	 0.000E+00	 0.000E+00	 0.000E+00	 0.000E+00	-7.021E-02	 0.000E+00	 0.000E+00	 0.000E+00	 0.000E+00	 0.000E+00	-1.794E-01	 0.000E+00	 0.000E+00	 0.000E+00	 0.000E+00	 0.000E+00
   0.395	 2.199E+01	 0.000E+00	 0.000E+00	 0.000E+00	 0.000E+00	 0.000E+00	-7.111E-02	 0.000E+00	 0.000E+00	 0.000E+00	 0.000E+00	 0.000E+00	-1.794E-01	 0.000E+00	 0.000E+00	 0.000E+00	 0.000E+00	 0.000E+00
   0.400	 2.199E+01	 0.000E+00	 0.000E+00	 0.000E+00	 0.000E+00	 0.000E+00	-7.201E-02	 0.000E+00	 0.000E+00	 0.000E+00	 0.000E+00	 0.000E+00	-1.794E-01	 0.000E+00	 0.000E+00	 0.000E+00	 0.000E+00	 0.000E+00
   0.405	 2.199E+01	 0.000E+00	 0.000E+00	 0.000E+00	 0.000E+00	 0.000E+00	-7.290E-02	 0.000E+00	 0.000E+00	 0.000E+00	 0.000E+00	 0.000E+00	-1.794E-01	 0.000E+00	 0.000E+00	 0.000E+00	 0.000E+00	 0.000E+00
   0.410	 2.198E+01	 0.000E+00	 0.000E+00	 0.000E+00	 0.000E+00	 0.000E+00	-7.380E-02	 0.000E+00	 0.000E+00	 0.000E+00	 0.000E+00	 0.000E+00	-1.794E-01	 0.000E+00	 0.000E+00	 0.000E+00	 0.000E+00	 0.000E+00
   0.415	 2.198E+01	 0.000E+00	 0.000E+00	 0.000E+00	 0.000E+00	 0.000E+00	-7.470E-02	 0.000E+00	 0.000E+00	 0.000E+00	 0.000E+00	 0.000E+00	-1.794E-01	 0.000E+00	 0.000E+00	 0.000E+00	 0.000E+00	 0.000E+00
   0.420	 2.198E+01	 0.000E+00	 0.000E+00	 0.000E+00	 0.000E+00	 0.000E+00	-7.559E-02	 0.000E+00	 0.000E+00	 0.000E+00	 0.000E+00	 0.000E+00	-1.794E-01	 0.000E+00	 0.000E+00	 0.000E+00	 0.000E+00	 0.000E+00
   0.425	 2.198E+01	 0.000E+00	 0.000E+00	 0.000E+00	 0.000E+00	 0.000E+00	-7.649E-02	 0.000E+00	 0.000E+00	 0.000E+00	 0.000E+00	 0.000E+00	-1.794E-01	 0.000E+00	 0.000E+00	 0.000E+00	 0.000E+00	 0.000E+00
   0.430	 2.198E+01	 0.000E+00	 0.000E+00	 0.000E+00	 0.000E+00	 0.000E+00	-7.739E-02	 0.000E+00	 0.000E+00	 0.000E+00	 0.000E+00	 0.000E+00	-1.793E-01	 0.000E+00	 0.000E+00	 0.000E+00	 0.000E+00	 0.000E+00
   0.435	 2.198E+01	 0.000E+00	 0.000E+00	 0.000E+00	 0.000E+00	 0.000E+00	-7.828E-02	 0.000E+00	 0.000E+00	 0.000E+00	 0.000E+00	 0.000E+00	-1.793E-01	 0.000E+00	 0.000E+00	 0.000E+00	 0.000E+00	 0.000E+00
   0.440	 2.198E+01	 0.000E+00	 0.000E+00	 0.000E+00	 0.000E+00	 0.000E+00	-7.918E-02	 0.000E+00	 0.000E+00	 0.000E+00	 0.000E+00	 0.000E+00	-1.793E-01	 0.000E+00	 0.000E+00	 0.000E+00	 0.000E+00	 0.000E+00
   0.445	 2.198E+01	 0.000E+00	 0.000E+00	 0.000E+00	 0.000E+00	 0.000E+00	-8.008E-02	 0.000E+00	 0.000E+00	 0.000E+00	 0.000E+00	 0.000E+00	-1.793E-01	 0.000E+00	 0.000E+00	 0.000E+00	 0.000E+00	 0.000E+00
   0.450	 2.198E+01	 0.000E+00	 0.000E+00	 0.000E+00	 0.000E+00	 0.000E+00	-8.097E-02	 0.000E+00	 0.000E+00	 0.000E+00	 0.000E+00	 0.000E+00	-1.793E-01	 0.000E+00	 0.000E+00	 0.000E+00	 0.000E+00	 0.000E+00
   0.455	 2.198E+01	 0.000E+00	 0.000E+00	 0.000E+00	 0.000E+00	 0.000E+00	-8.187E-02	 0.000E+00	 0.000E+00	 0.000E+00	 0.000E+00	 0.000E+00	-1.793E-01	 0.000E+00	 0.000E+00	 0.000E+00	 0.000E+00	 0.000E+00
   0.460	 2.198E+01	 0.000E+00	 0.000E+00	 0.000E+00	 0.000E+00	 0.000E+00	-8.277E-02	 0.000E+00	 0.000E+00	 0.000E+00	 0.000E+00	 0.000E+00	-1.793E-01	 0.000E+00	 0.000E+00	 0.000E+00	 0.000E+00	 0.000E+00
   0.465	 2.198E+01	 0.000E+00	 0.000E+00	 0.000E+00	 0.000E+00	 0.000E+00	-8.366E-02	 0.000E+00	 0.000E+00	 0.000E+00	 0.000E+00	 0.000E+00	-1.793E-01	 0.000E+00	 0.000E+00	 0.000E+00	 0.000E+00	 0.000E+00
   0.470	 2.198E+01	 0.000E+00	 0.000E+00	 0.000E+00	 0.000E+00	 0.000E+00	-8.456E-02	 0.000E+00	 0.000E+00	 0.000E+00	 0.000E+00	 0.000E+00	-1.793E-01	 0.000E+00	 0.000E+00	 0.000E+00	 0.000E+00	 0.000E+00
   0.475	 2.198E+01	 0.000E+00	 0.000E+00	 0.000E+00	 0.000E+00	 0.000E+00	-8.546E-02	 0.000E+00	 0.000E+00	 0.000E+00	 0.000E+00	 0.000E+00	-1.793E-01	 0.000E+00	 0.000E+00	 0.000E+00	 0.000E+00	 0.000E+00
   0.480	 2.198E+01	 0.000E+00	 0.000E+00	 0.000E+00	 0.000E+00	 0.000E+00	-8.635E-02	 0.000E+00	 0.000E+00	 0.000E+00	 0.000E+00	 0.000E+00	-1.791E-01	 0.000E+00	 0.000E+00	 0.000E+00	 0.000E+00	 0.000E+00
   0.485	 2.198E+01	 0.000E+00	 0.000E+00	 0.000E+00	 0.000E+00	 0.000E+00	-8.725E-02	 0.000E+00	 0.000E+00	 0.000E+00	 0.000E+00	 0.000E+00	-1.791E-01	 0.000E+00	 0.000E+00	 0.000E+00	 0.000E+00	 0.000E+00
   0.490	 2.198E+01	 0.000E+00	 0.000E+00	 0.000E+00	 0.000E+00	 0.000E+00	-8.814E-02	 0.000E+00	 0.000E+00	 0.000E+00	 0.000E+00	 0.000E+00	-1.791E-01	 0.000E+00	 0.000E+00	 0.000E+00	 0.000E+00	 0.000E+00
   0.495	 2.198E+01	 0.000E+00	 0.000E+00	 0.000E+00	 0.000E+00	 0.000E+00	-8.904E-02	 0.000E+00	 0.000E+00	 0.000E+00	 0.000E+00	 0.000E+00	-1.791E-01	 0.000E+00	 0.000E+00	 0.000E+00	 0.000E+00	 0.000E+00
   0.500	 2.198E+01	 0.000E+00	 0.000E+00	 0.000E+00	 0.000E+00	 0.000E+00	-8.993E-02	 0.000E+00	 0.000E+00	 0.000E+00	 0.000E+00	 0.000E+00	-1.791E-01	 0.000E+00	 0.000E+00	 0.000E+00	 0.000E+00	 0.000E+00
   0.505	 2.198E+01	 0.000E+00	 0.000E+00	 0.000E+00	 0.000E+00	 0.000E+00	-9.083E-02	 0.000E+00	 0.000E+00	 0.000E+00	 0.000E+00	 0.000E+00	-1.791E-01	 0.000E+00	 0.000E+00	 0.000E+00	 0.000E+00	 0.000E+00
   0.510	 2.198E+01	 0.000E+00	 0.000E+00	 0.000E+00	 0.000E+00	 0.000E+00	-9.172E-02	 0.000E+00	 0.000E+00	 0.000E+00	 0.000E+00	 0.000E+00	-1.791E-01	 0.000E+00	 0.000E+00	 0.000E+00	 0.000E+00	 0.000E+00
   0.515	 2.198E+01	 0.000E+00	 0.000E+00	 0.000E+00	 0.000E+00	 0.000E+00	-9.262E-02	 0.000E+00	 0.000E+00	 0.000E+00	 0.000E+00	 0.000E+00	-1.791E-01	 0.000E+00	 0.000E+00	 0.000E+00	 0.000E+00	 0.000E+00
   0.520	 2.198E+01	 0.000E+00	 0.000E+00	 0.000E+00	 0.000E+00	 0.000E+00	-9.352E-02	 0.000E+00	 0.000E+00	 0.000E+00	 0.000E+00	 0.000E+00	-1.791E-01	 0.000E+00	 0.000E+00	 0.000E+00	 0.000E+00	 0.000E+00
   0.525	 2.198E+01	 0.000E+00	 0.000E+00	 0.000E+00	 0.000E+00	 0.000E+00	-9.441E-02	 0.000E+00	 0.000E+00	 0.000E+00	 0.000E+00	 0.000E+00	-1.791E-01	 0.000E+00	 0.000E+00	 0.000E+00	 0.000E+00	 0.000E+00
   0.530	 2.197E+01	 0.000E+00	 0.000E+00	 0.000E+00	 0.000E+00	 0.000E+00	-9.531E-02	 0.000E+00	 0.000E+00	 0.000E+00	 0.000E+00	 0.000E+00	-1.790E-01	 0.000E+00	 0.000E+00	 0.000E+00	 0.000E+00	 0.000E+00
   0.535	 2.197E+01	 0.000E+00	 0.000E+00	 0.000E+00	 0.000E+00	 0.000E+00	-9.620E-02	 0.000E+00	 0.000E+00	 0.000E+00	 0.000E+00	 0.000E+00	-1.790E-01	 0.000E+00	 0.000E+00	 0.000E+00	 0.000E+00	 0.000E+00
   0.540	 2.197E+01	 0.000E+00	 0.000E+00	 0.000E+00	 0.000E+00	 0.000E+00	-9.710E-02	 0.000E+00	 0.000E+00	 0.000E+00	 0.000E+00	 0.000E+00	-1.790E-01	 0.000E+00	 0.000E+00	 0.000E+00	 0.000E+00	 0.000E+00
   0.545	 2.197E+01	 0.000E+00	 0.000E+00	 0.000E+00	 0.000E+00	 0.000E+00	-9.799E-02	 0.000E+00	 0.000E+00	 0.000E+00	 0.000E+00	 0.000E+00	-1.790E-01	 0.000E+00	 0.000E+00	 0.000E+00	 0.000E+00	 0.000E+00
   0.550	 2.197E+01	 0.000E+00	 0.000E+00	 0.000E+00	 0.000E+00	 0.000E+00	-9.889E-02	 0.000E+00	 0.000E+00	 0.000E+00	 0.000E+00	 0.000E+00	-1.790E-01	 0.000E+00	 0.000E+00	 0.000E+00	 0.000E+00	 0.000E+00
   0.555	 2.197E+01	 0.000E+00	 0.000E+00	 0.000E+00	 0.000E+00	 0.000E+00	-9.978E-02	 0.000E+00	 0.000E+00	 0.000E+00	 0.000E+00	 0.000E+00	-1.790E-01	 0.000E+00	 0.000E+00	 0.000E+00	 0.000E+00	 0.000E+00
   0.560	 2.197E+01	 0.000E+00	 0.000E+00	 0.000E+00	 0.000E+00	 0.000E+00	-1.007E-01	 0.000E+00	 0.000E+00	 0.000E+00	 0.000E+00	 0.000E+00	-1.790E-01	 0.000E+00	 0.000E+00	 0.000E+00	 0.000E+00	 0.000E+00
   0.565	 2.197E+01	 0.000E+00	 0.000E+00	 0.000E+00	 0.000E+00	 0.000E+00	-1.016E-01	 0.000E+00	 0.000E+00	 0.000E+00	 0.000E+00	 0.000E+00	-1.790E-01	 0.000E+00	 0.000E+00	 0.000E+00	 0.000E+00	 0.000E+00
   0.570	 2.197E+01	 0.000E+00	 0.000E+00	 0.000E+00	 0.000E+00	 0.000E+00	-1.025E-01	 0.000E+00	 0.000E+00	 0.000E+00	 0.000E+00	 0.000E+00	-1.790E-01	 0.000E+00	 0.000E+00	 0.000E+00	 0.000E+00	 0.000E+00
   0.575	 2.197E+01	 0.000E+00	 0.000E+00	 0.000E+00	 0.000E+00	 0.000E+00	-1.034E-01	 0.000E+00	 0.000E+00	 0.000E+00	 0.000E+00	 0.000E+00	-1.790E-01	 0.000E+00	 0.000E+00	 0.000E+00	 0.000E+00	 0.000E+00
   0.580	 2.197E+01	 0.000E+00	 0.000E+00	 0.000E+00	 0.000E+00	 0.000E+00	-1.043E-01	 0.000E+00	 0.000E+00	 0.000E+00	 0.000E+00	 0.000E+00	-1.788E-01	 0.000E+00	 0.000E+00	 0.000E+00	 0.000E+00	 0.000E+00
   0.585	 2.197E+01	 0.000E+00	 0.000E+00	 0.000E+00	 0.000E+00	 0.000E+00	-1.051E-01	 0.000E+00	 0.000E+00	 0.000E+00	 0.000E+00	 0.000E+00	-1.788E-01	 0.000E+00	 0.000E+00	 0.000E+00	 0.000E+00	 0.000E+00
   0.590	 2.197E+01	 0.000E+00	 0.000E+00	 0.000E+00	 0.000E+00	 0.000E+00	-1.060E-01	 0.000E+00	 0.000E+00	 0.000E+00	 0.000E+00	 0.000E+00	-1.788E-01	 0.000E+00	 0.000E+00	 0.000E+00	 0.000E+00	 0.000E+00
   0.595	 2.197E+01	 0.000E+00	 0.000E+00	 0.000E+00	 0.000E+00	 0.000E+00	-1.069E-01	 0.000E+00	 0.000E+00	 0.000E+00	 0.000E+00	 0.000E+00	-1.788E-01	 0.000E+00	 0.000E+00	 0.000E+00	 0.000E+00	 0.000E+00
   0.600	 2.197E+01	 0.000E+00	 0.000E+00	 0.000E+00	 0.000E+00	 0.000E+00	-1.078E-01	 0.000E+00	 0.000E+00	 0.000E+00	 0.000E+00	 0.000E+00	-1.788E-01	 0.000E+00	 0.000E+00	 0.000E+00	 0.000E+00	 0.000E+00
   0.605	 2.197E+01	 0.000E+00	 0.000E+00	 0.000E+00	 0.000E+00	 0.000E+00	-1.087E-01	 0.000E+00	 0.000E+00	 0.000E+00	 0.000E+00	 0.000E+00	-1.788E-01	 0.000E+00	 0.000E+00	 0.000E+00	 0.000E+00	 0.000E+00
   0.610	 2.197E+01	 0.000E+00	 0.000E+00	 0.000E+00	 0.000E+00	 0.000E+00	-1.096E-01	 0.000E+00	 0.000E+00	 0.000E+00	 0.000E+00	 0.000E+00	-1.788E-01	 0.000E+00	 0.000E+00	 0.000E+00	 0.000E+00	 0.000E+00
   0.615	 2.197E+01	 0.000E+00	 0.000E+00	 0.000E+00	 0.000E+00	 0.000E+00	-1.105E-01	 0.000E+00	 0.000E+00	 0.000E+00	 0.000E+00	 0.000E+00	-1.788E-01	 0.000E+00	 0.000E+00	 0.000E+00	 0.000E+00	 0.000E+00
   0.620	 2.197E+01	 0.000E+00	 0.000E+00	 0.000E+00	 0.000E+00	 0.000E+00	-1.114E-01	 0.000E+00	 0.000E+00	 0.000E+00	 0.000E+00	 0.000E+00	-1.788E-01	 0.000E+00	 0.000E+00	 0.000E+00	 0.000E+00	 0.000E+00
   0.625	 2.196E+01	 0.000E+00	 0.000E+00	 0.000E+00	 0.000E+00	 0.000E+00	-1.123E-01	 0.000E+00	 0.000E+00	 0.000E+00	 0.000E+00	 0.000E+00	-1.788E-01	 0.000E+00	 0.000E+00	 0.000E+00	 0.000E+00	 0.000E+00
   0.630	 2.196E+01	 0.000E+00	 0.000E+00	 0.000E+00	 0.000E+00	 0.000E+00	-1.132E-01	 0.000E+00	 0.000E+00	 0.000E+00	 0.000E+00	 0.000E+00	-1.786E-01	 0.000E+00	 0.000E+00	 0.000E+00	 0.000E+00	 0.000E+00
   0.635	 2.196E+01	 0.000E+00	 0.000E+00	 0.000E+00	 0.000E+00	 0.000E+00	-1.141E-01	 0.000E+00	 0.000E+00	 0.000E+00	 0.000E+00	 0.000E+00	-1.786E-01	 0.000E+00	 0.000E+00	 0.000E+00	 0.000E+00	 0.000E+00
   0.640	 2.196E+01	 0.000E+00	 0.000E+00	 0.000E+00	 0.000E+00	 0.000E+00	-1.150E-01	 0.000E+00	 0.000E+00	 0.000E+00	 0.000E+00	 0.000E+00	-1.786E-01	 0.000E+00	 0.000E+00	 0.000E+00	 0.000E+00	 0.000E+00
   0.645	 2.196E+01	 0.000E+00	 0.000E+00	 0.000E+00	 0.000E+00	 0.000E+00	-1.159E-01	 0.000E+00	 0.000E+00	 0.000E+00	 0.000E+00	 0.000E+00	-1.786E-01	 0.000E+00	 0.000E+00	 0.000E+00	 0.000E+00	 0.000E+00
   0.650	 2.196E+01	 0.000E+00	 0.000E+00	 0.000E+00	 0.000E+00	 0.000E+00	-1.168E-01	 0.000E+00	 0.000E+00	 0.000E+00	 0.000E+00	 0.000E+00	-1.786E-01	 0.000E+00	 0.000E+00	 0.000E+00	 0.000E+00	 0.000E+00
   0.655	 2.196E+01	 0.000E+00	 0.000E+00	 0.000E+00	 0.000E+00	 0.000E+00	-1.177E-01	 0.000E+00	 0.000E+00	 0.000E+00	 0.000E+00	 0.000E+00	-1.786E-01	 0.000E+00	 0.000E+00	 0.000E+00	 0.000E+00	 0.000E+00
   0.660	 2.196E+01	 0.000E+00	 0.000E+00	 0.000E+00	 0.000E+00	 0.000E+00	-1.186E-01	 0.000E+00	 0.000E+00	 0.000E+00	 0.000E+00	 0.000E+00	-1.786E-01	 0.000E+00	 0.000E+00	 0.000E+00	 0.000E+00	 0.000E+00
   0.665	 2.196E+01	 0.000E+00	 0.000E+00	 0.000E+00	 0.000E+00	 0.000E+00	-1.194E-01	 0.000E+00	 0.000E+00	 0.000E+00	 0.000E+00	 0.000E+00	-1.786E-01	 0.000E+00	 0.000E+00	 0.000E+00	 0.000E+00	 0.000E+00
   0.670	 2.196E+01	 0.000E+00	 0.000E+00	 0.000E+00	 0.000E+00	 0.000E+00	-1.203E-01	 0.000E+00	 0.000E+00	 0.000E+00	 0.000E+00	 0.000E+00	-1.786E-01	 0.000E+00	 0.000E+00	 0.000E+00	 0.000E+00	 0.000E+00
   0.675	 2.196E+01	 0.000E+00	 0.000E+00	 0.000E+00	 0.000E+00	 0.000E+00	-1.212E-01	 0.000E+00	 0.000E+00	 0.000E+00	 0.000E+00	 0.000E+00	-1.786E-01	 0.000E+00	 0.000E+00	 0.000E+00	 0.000E+00	 0.000E+00
   0.680	 2.196E+01	 0.000E+00	 0.000E+00	 0.000E+00	 0.000E+00	 0.000E+00	-1.221E-01	 0.000E+00	 0.000E+00	 0.000E+00	 0.000E+00	 0.000E+00	-1.783E-01	 0.000E+00	 0.000E+00	 0.000E+00	 0.000E+00	 0.000E+00
   0.685	 2.196E+01	 0.000E+00	 0.000E+00	 0.000E+00	 0.000E+00	 0.000E+00	-1.230E-01	 0.000E+00	 0.000E+00	 0.000E+00	 0.000E+00	 0.000E+00	-1.783E-01	 0.000E+00	 0.000E+00	 0.000E+00	 0.000E+00	 0.000E+00
   0.690	 2.196E+01	 0.000E+00	 0.000E+00	 0.000E+00	 0.000E+00	 0.000E+00	-1.239E-01	 0.000E+00	 0.000E+00	 0.000E+00	 0.000E+00	 0.000E+00	-1.783E-01	 0.000E+00	 0.000E+00	 0.000E+00	 0.000E+00	 0.000E+00
   0.695	 2.196E+01	 0.000E+00	 0.000E+00	 0.000E+00	 0.000E+00	 0.000E+00	-1.248E-01	 0.000E+00	 0.000E+00	 0.000E+00	 0.000E+00	 0.000E+00	-1.783E-01	 0.000E+00	 0.000E+00	 0.000E+00	 0.000E+00	 0.000E+00
   0.700	 2.196E+01	 0.000E+00	 0.000E+00	 0.000E+00	 0.000E+00	 0.000E+00	-1.257E-01	 0.000E+00	 0.000E+00	 0.000E+00	 0.000E+00	 0.000E+00	-1.783E-01	 0.000E+00	 0.000E+00	 0.000E+00	 0.000E+00	 0.000E+00
   0.705	 2.196E+01	 0.000E+00	 0.000E+00	 0.000E+00	 0.000E+00	 0.000E+00	-1.266E-01	 0.000E+00	 0.000E+00	 0.000E+00	 0.000E+00	 0.000E+00	-1.783E-01	 0.000E+00	 0.000E+00	 0.000E+00	 0.000E+00	 0.000E+00